# generated using pymatgen
data_CoCO3
_symmetry_space_group_name_H-M   'P 1'
_cell_length_a   5.72340387
_cell_length_b   5.72340387
_cell_length_c   5.72340387
_cell_angle_alpha   48.64810687
_cell_angle_beta   48.64810688
_cell_angle_gamma   48.64810689
_symmetry_Int_Tables_number   1
_chemical_formula_structural   CoCO3
_chemical_formula_sum   'Co2 C2 O6'
_cell_volume   96.9263580876
_cell_formula_units_Z   2
loop_
 _symmetry_equiv_pos_site_id
 _symmetry_equiv_pos_as_xyz
  1  'x, y, z'
loop_
 _atom_site_type_symbol
 _atom_site_label
 _atom_site_symmetry_multiplicity
 _atom_site_fract_x
 _atom_site_fract_y
 _atom_site_fract_z
 _atom_site_occupancy
  C  C1  1  0.749999  0.750001  0.750000  1
  C  C2  1  0.249999  0.250001  0.250000  1
  O  O3  1  0.749999  0.474617  0.025384  1
  O  O4  1  0.474617  0.025383  0.750000  1
  O  O5  1  0.974616  0.250001  0.525383  1
  O  O6  1  0.025384  0.750001  0.474616  1
  O  O7  1  0.250001  0.525385  0.974614  1
  O  O8  1  0.525384  0.974616  0.250000  1
  Co  Co9  1  0.500000  0.500000  0.500000  1
  Co  Co10  1  0.000000  0.000000  0.000000  1
