# generated using pymatgen
data_CoP2O7
_symmetry_space_group_name_H-M   'P 1'
_cell_length_a   4.57990595
_cell_length_b   5.21240851
_cell_length_c   5.21193630
_cell_angle_alpha   79.26944663
_cell_angle_beta   82.94296995
_cell_angle_gamma   97.05359943
_symmetry_Int_Tables_number   1
_chemical_formula_structural   CoP2O7
_chemical_formula_sum   'Co1 P2 O7'
_cell_volume   119.957827412
_cell_formula_units_Z   1
loop_
 _symmetry_equiv_pos_site_id
 _symmetry_equiv_pos_as_xyz
  1  'x, y, z'
loop_
 _atom_site_type_symbol
 _atom_site_label
 _atom_site_symmetry_multiplicity
 _atom_site_fract_x
 _atom_site_fract_y
 _atom_site_fract_z
 _atom_site_occupancy
  O  O1  1  0.528270  0.201904  0.343842  1
  O  O2  1  0.025257  0.251349  0.580265  1
  O  O3  1  0.223433  0.512140  0.120134  1
  O  O4  1  0.422098  0.972124  0.859375  1
  O  O5  1  0.990464  0.905753  0.229408  1
  O  O6  1  0.919015  0.735988  0.809649  1
  O  O7  1  0.456736  0.621586  0.513514  1
  P  P8  1  0.135094  0.796710  0.003509  1
  P  P9  1  0.312042  0.395632  0.404653  1
  Co  Co10  1  0.723563  0.943110  0.550870  1
